Version 4
SHEET 1 980 680
WIRE 208 112 48 112
WIRE 432 112 208 112
WIRE 720 112 432 112
WIRE 208 160 208 112
WIRE 208 240 128 240
WIRE 336 240 208 240
WIRE 704 240 336 240
WIRE 448 256 400 256
WIRE 720 256 720 112
WIRE 720 256 672 256
WIRE 128 288 128 240
WIRE 336 304 336 240
WIRE 448 320 416 320
WIRE 704 320 704 240
WIRE 704 320 672 320
WIRE 912 352 384 352
WIRE 48 368 48 112
WIRE 384 384 384 352
WIRE 448 384 384 384
WIRE 688 384 672 384
WIRE 912 400 912 352
WIRE 128 416 128 352
WIRE 144 416 128 416
WIRE 240 416 224 416
WIRE 336 416 336 368
WIRE 336 416 320 416
WIRE 416 416 416 320
WIRE 688 416 688 384
WIRE 688 416 416 416
WIRE 432 448 432 112
WIRE 448 448 432 448
WIRE 736 448 672 448
WIRE 240 480 240 416
WIRE 416 480 416 416
WIRE 416 480 240 480
WIRE 736 496 736 448
WIRE 240 512 240 480
WIRE 912 512 912 480
WIRE 48 592 48 448
WIRE 240 592 240 576
WIRE 240 592 48 592
WIRE 400 592 400 256
WIRE 400 592 240 592
WIRE 736 592 736 560
WIRE 736 592 400 592
WIRE 912 592 912 576
WIRE 912 592 736 592
FLAG 240 592 0
SYMBOL Voltage 48 352 R0
SYMATTR InstName V1
SYMATTR Value 9
SYMBOL Misc/NE555 560 352 R0
SYMATTR InstName U1
SYMBOL Res 192 144 R0
SYMATTR InstName R2
SYMATTR Value 1Meg
SYMBOL Diode 112 288 R0
SYMATTR InstName D1
SYMBOL Res 128 432 R270
WINDOW 0 32 56 VTop 2
WINDOW 3 0 56 VBottom 2
SYMATTR InstName R3
SYMATTR Value 500k
SYMBOL Res 224 432 R270
WINDOW 0 32 56 VTop 2
WINDOW 3 0 56 VBottom 2
SYMATTR InstName R4
SYMATTR Value 500k
SYMBOL Cap 224 512 R0
SYMATTR InstName C1
SYMATTR Value 10n
SYMBOL Cap 720 496 R0
SYMATTR InstName C2
SYMATTR Value 10n
SYMBOL Res 896 384 R0
SYMATTR InstName R1
SYMATTR Value 470
SYMBOL Diode 896 512 R0
SYMATTR InstName D3
SYMBOL Diode 352 368 R180
WINDOW 0 24 64 Left 2
WINDOW 3 24 0 Left 2
SYMATTR InstName D2
TEXT 416 40 Left 2 !.tran 0 0.5s 0.1
