Version 4
SHEET 1 1924 680
WIRE 112 -96 64 -96
WIRE 192 -96 176 -96
WIRE 304 -96 192 -96
WIRE 432 -96 304 -96
WIRE 720 -96 432 -96
WIRE 1472 -96 720 -96
WIRE 1664 -96 1472 -96
WIRE 1744 -96 1664 -96
WIRE 1664 -80 1664 -96
WIRE 304 -64 304 -96
WIRE 1472 -64 1472 -96
WIRE 448 32 400 32
WIRE 672 32 672 16
WIRE 720 32 720 -96
WIRE 720 32 672 32
WIRE 1536 32 1008 32
WIRE 1664 32 1664 0
WIRE 1664 32 1600 32
WIRE 304 48 304 16
WIRE 704 48 304 48
WIRE 192 64 192 -96
WIRE 304 64 304 48
WIRE 1536 64 1136 64
WIRE 1664 64 1664 32
WIRE 1664 64 1600 64
WIRE 448 96 384 96
WIRE 704 96 704 48
WIRE 704 96 672 96
WIRE 1536 96 1264 96
WIRE 1664 96 1664 64
WIRE 1664 96 1600 96
WIRE 1744 128 1744 -96
WIRE 864 144 800 144
WIRE 880 144 864 144
WIRE 1008 144 1008 32
WIRE 1008 144 944 144
WIRE 1024 144 1008 144
WIRE 1136 144 1136 64
WIRE 1136 144 1104 144
WIRE 1152 144 1136 144
WIRE 1264 144 1264 96
WIRE 1264 144 1232 144
WIRE 1280 144 1264 144
WIRE 1376 144 1360 144
WIRE 1392 144 1376 144
WIRE 1472 144 1472 16
WIRE 64 160 64 -96
WIRE 304 160 304 144
WIRE 384 160 384 96
WIRE 384 160 304 160
WIRE 448 160 416 160
WIRE 704 160 672 160
WIRE 304 176 304 160
WIRE 704 176 704 160
WIRE 704 176 304 176
WIRE 864 176 864 144
WIRE 1472 176 1472 144
WIRE 1664 176 1664 96
WIRE 1664 176 1472 176
WIRE 1680 176 1664 176
WIRE 432 224 432 -96
WIRE 448 224 432 224
WIRE 688 224 672 224
WIRE 1376 224 1376 144
WIRE 1392 224 1376 224
WIRE 1472 224 1472 176
WIRE 1472 224 1456 224
WIRE 1760 224 1744 224
WIRE 1792 224 1760 224
WIRE 1904 224 1856 224
WIRE 1008 240 1008 144
WIRE 1136 240 1136 144
WIRE 1264 240 1264 144
WIRE 1472 256 1472 224
WIRE 304 272 304 176
WIRE 416 288 416 160
WIRE 800 288 800 144
WIRE 800 288 416 288
WIRE 864 288 864 256
WIRE 1760 288 1760 224
WIRE 1904 288 1904 224
WIRE 688 304 688 224
WIRE 1376 304 1376 224
WIRE 1408 304 1376 304
WIRE 64 384 64 240
WIRE 192 384 192 128
WIRE 192 384 64 384
WIRE 304 384 304 336
WIRE 304 384 192 384
WIRE 400 384 400 32
WIRE 400 384 304 384
WIRE 688 384 688 368
WIRE 688 384 400 384
WIRE 864 384 864 368
WIRE 864 384 688 384
WIRE 1008 384 1008 304
WIRE 1008 384 864 384
WIRE 1088 384 1008 384
WIRE 1136 384 1136 304
WIRE 1136 384 1088 384
WIRE 1264 384 1264 304
WIRE 1264 384 1136 384
WIRE 1472 384 1472 352
WIRE 1472 384 1264 384
WIRE 1760 384 1760 368
WIRE 1760 384 1472 384
WIRE 1904 384 1904 368
WIRE 1904 384 1760 384
FLAG 1088 384 0
SYMBOL Voltage 64 144 R0
SYMATTR InstName V2
SYMATTR Value 9
SYMBOL Diode 112 -80 R270
WINDOW 0 32 32 VTop 2
WINDOW 3 0 32 VBottom 2
SYMATTR InstName D2
SYMBOL Cap 176 64 R0
SYMATTR InstName C1
SYMATTR Value 1µ
SYMBOL Res 288 48 R0
SYMATTR InstName R1
SYMATTR Value 15k
SYMBOL Misc/NE555 560 128 R0
SYMATTR InstName U1
SYMBOL Cap 672 304 R0
SYMATTR InstName C2
SYMATTR Value 10n
SYMBOL Cap 288 272 R0
SYMATTR InstName C3
SYMATTR Value 47n
SYMBOL Cap 944 128 R90
WINDOW 0 0 32 VBottom 2
WINDOW 3 32 32 VTop 2
SYMATTR InstName C5
SYMATTR Value 100n
SYMBOL Res 880 272 R180
WINDOW 0 36 76 Left 2
WINDOW 3 36 40 Left 2
SYMATTR InstName R2
SYMATTR Value 4k7
SYMBOL Res 880 384 R180
WINDOW 0 36 76 Left 2
WINDOW 3 36 40 Left 2
SYMATTR InstName R3
SYMATTR Value 1k
SYMBOL Res 288 -80 R0
SYMATTR InstName R4
SYMATTR Value 1k
SYMBOL Cap 992 240 R0
WINDOW 0 24 56 Left 2
WINDOW 3 24 8 Left 2
SYMATTR InstName C6
SYMATTR Value 47n
SYMBOL Res 1008 160 R270
WINDOW 0 32 56 VTop 2
WINDOW 3 0 56 VBottom 2
SYMATTR InstName R5
SYMATTR Value 10k
SYMBOL Cap 1120 240 R0
WINDOW 0 24 56 Left 2
WINDOW 3 24 8 Left 2
SYMATTR InstName C4
SYMATTR Value 47n
SYMBOL Res 1136 160 R270
WINDOW 0 32 56 VTop 2
WINDOW 3 0 56 VBottom 2
SYMATTR InstName R6
SYMATTR Value 10k
SYMBOL Res 1264 160 R270
WINDOW 0 32 56 VTop 2
WINDOW 3 0 56 VBottom 2
SYMATTR InstName R7
SYMATTR Value 10k
SYMBOL Cap 1248 240 R0
WINDOW 0 24 56 Left 2
WINDOW 3 24 8 Left 2
SYMATTR InstName C7
SYMATTR Value 47n
SYMBOL Res 1488 128 R90
WINDOW 0 0 56 VBottom 2
WINDOW 3 32 56 VTop 2
SYMATTR InstName R9
SYMATTR Value 1Meg
SYMBOL Cap 1456 208 R90
WINDOW 0 0 32 VBottom 2
WINDOW 3 32 32 VTop 2
SYMATTR InstName C8
SYMATTR Value 10n
SYMBOL npn3 1408 256 R0
SYMATTR InstName Q1
SYMBOL Res 1456 -80 R0
SYMATTR InstName R8
SYMATTR Value 100k
SYMBOL Res 1648 -96 R0
SYMATTR InstName R10
SYMATTR Value 100k
SYMBOL npn3 1680 128 R0
SYMATTR InstName Q2
SYMBOL Res 1744 272 R0
SYMATTR InstName R12
SYMATTR Value 1k
SYMBOL Cap 1856 208 R90
WINDOW 0 0 32 VBottom 2
WINDOW 3 32 32 VTop 2
SYMATTR InstName C10
SYMATTR Value 1µ
SYMBOL Res 1920 384 R180
WINDOW 0 36 76 Left 2
WINDOW 3 36 40 Left 2
SYMATTR InstName R13
SYMATTR Value 47k
TEXT 712 536 Left 2 !.tran 0 1s 0.1
